*LTSpice SwitcherCAD III Small Signal Bipolar Junction Transistor Database
*
*BC548B and BC558B Added (by Other Contributor)
*AC127 and AC128 Added (by Other Contributor)
*
* BC107A,  BC107B, BC109C, BC179A, BC179B, BC549C (added by other contributer  15 Nov 08)
* BD139, BD140  (added by other contributer  15 Nov 08)
* BFY51 (added by other contributer  15 Nov 08)
* 2N3055H  (added by other contributer  15 Nov 08)

.MODEL AC127 NPN(IS=1.41f ISC=0  ISE=0 IKF=80m IKR=0 ITF=0.4 
+NC=2 NE=1.5 BF=70 BR=4.977 RB=10 RC=2.5 CJC=9.728p CJE=8.063p
+TR=33.42n TF=179.3p FC=0.5 EG=1.11 VJC=0.2 VJE=0.2 VTF=4
+MJC=0.5776 MJE=0.3677 XTB=1.5 XTF=6 XTI=3 MFG=GERMANIUM-TYPE)

.MODEL AC128 PNP(IS=1.41f ISC=0  ISE=0 IKF=80m IKR=0 ITF=0.4 
+NC=2 NE=1.5 BF=70 BR=4.977 RB=10 RC=2.5 CJC=9.728p CJE=8.063p
+TR=33.42n TF=179.3p FC=0.5 EG=1.11 VJC=0.2 VJE=0.2 VTF=4
+MJC=0.5776 MJE=0.3677 XTB=1.5 XTF=6 XTI=3 MFG=GERMANIUM-TYPE)

.MODEL 2N2219 NPN(IS=3.0611E-14 ISE=7.5E-15 ISC=1.06525E-11 XTI=3
+ BF=255.9 BR=6.092 IKF=0.2847 IKR=0.125 XTB=1.5
+ VAF=74.03 VAR=28 VJE=0.65 VJC=0.4089
+ RE=0.02 RC=0.12 RB=10
+ CJE=22.01E-12 CJC=7.306E-12 XCJC=0.75 FC=0.5
+ NF=1.00124 NR=1.005 NE=1.41 NC=1.3728 MJE=0.377 MJC=0.3416
+ TF=411.1E-12 TR=46.91E-9 ITF=0.6 VTF=1.7 XTF=3
+ EG=1.11 KF=1E-9 AF=1
+ VCEO=40 ICRATING=500M MFG=NSC-PHILIPS)

.MODEL 2N2222 NPN(IS=29.13E-15 ISE=9.652E-15 ISC=320.3E-12 XTI=3.000
+ BF=256.7 BR=6.590 IKF=489.9E-3 IKR=192.9E-3 XTB=1.5
+ VAF=80.99 VAR=101.2 VJE=689.1E-3 VJC=662.2E-3
+ RE=193.4E-3 RC=224.8E-3 RB=1.000 RBM=1.000 IRB=1.000E-3
+ CJE=25.89E-12 CJC=10.11E-12 XCJC=0.5946 FC=938.8E-3
+ NF=992.6E-3 NR=984.4E-3 NE=1.516 NC=1.608 MJE=366.8E-3 MJC=416.0E-3
+ TF=293.9E-12 TR=320.0E-9 PTF=0.000 ITF=4.797 VTF=20.00 XTF=71.78
+ EG=1.110 KF=1E-9 AF=1
+ VCEO=30 ICRATING=500M MFG=PHILIPS)

.MODEL 2N2369 NPN(IS=1.222E-15 ISE=3.895E-14 ISC=1.85E-09 XTI=3
+ BF=82.01 BR=0.1731 IKF=0.196 IKR=0.1 XTB=1.5
+ VAF=35.3 VAR=29.6 VJE=0.7352 VJC=0.198
+ RE=0.612 RC=1.527 RB=0.5 RBM=0.5 IRB=1E-06
+ CJE=3.411E-12 CJC=1.605E-12 XCJC=0.4 FC=0.9399
+ NF=0.9901 NR=0.974 NE=1.632 NC=2.01 MJE=0.3437 MJC=0.1711
+ TF=2.115E-10 TR=60E-9 PTF=0 ITF=1.534 VTF=2.3 XTF=127
+ EG=1.11 KF=1E-9 AF=1
+ VCEO=15 ICRATING=200M MFG=PHILIPS)

.MODEL 2N2484 NPN(IS=5.911E-15 ISE=5.911E-15 ISC=0 XTI=3
+ BF=697.1 BR=1.297 IKF=13.93E-3 IKR=0 XTB=1.5
+ VAF=62.37 VAR=21.5 VJE=0.65 VJC=0.65
+ RE=0.15 RC=1.61 RB=10
+ CJE=4.973E-12 CJC=4.017E-12 XCJC=0.75 FC=0.5
+ NF=1 NR=1 NE=1.342 NC=2 MJE=0.4146 MJC=0.3174
+ TF=820.4E-12 TR=4.687E-9 ITF=0.35 VTF=4 XTF=7
+ EG=1.11 KF=1E-9 AF=1
+ VCEO=60 ICRATING=50M MFG=NSC)

.MODEL 2N3055 NPN(IS=2.37E-8 ISE=1E-9 ISC=1E-9 XTI=3
+ BF=73 BR=2.66 IKF=0.8 IKF=0.4 XTB=1.5
+ VAF=90 VAR=30 VJE=0.65 VJC=0.65
+ RE=0.00856 RC=0.0856 RB=0.81
+ CJE=415E-12 CJC=1000E-12 XCJC=0.75 FC=0.5
+ NF=1 NR=1 NE=1.26 NC=1.5 MJE=0.5 MJC=0.33
+ TF=100E-9 TR=0.51E-6
+ EG=1.11 KF=1E-9 AF=1
+ VCEO=60 ICRATING=10 MFG=STMICRO)

.MODEL 2N3055H  NPN(IS=2.37426e-14 BF=129.119 NF=0.85 VAF=31.1252
+IKF=0.990922 ISE=2.47498e-10 NE=1.89002 BR=1.01252
+NR=0.924456 VAR=254.624 IKR=2.70227 ISC=2.47498e-10
+NC=2.90624 RB=3.66609 IRB=0.1 RBM=0.1
+RE=0.000352673 RC=0.0764459 XTB=1.34801 XTI=1.07207
+EG=1.206 CJE=9.03089e-08 VJE=0.513954 MJE=0.59999
+TF=1e-08 XTF=1.36696 VTF=1.02605 ITF=0.987296
+CJC=5e-10 VJC=0.400243 MJC=0.410238 XCJC=0.803124
+FC=0.661216 CJS=0 VJS=0.75 MJS=0.5 TR=1e-07 PTF=0 KF=0 AF=1
+ VCEO=60 ICRATING=15 MFG=Motorola)


.MODEL 2N3390 NPN(IS=12.03E-15 ISE=1.842E-12 ISC=0 XTI=3
+ BF=685.8 BR=4.379 IKF=0.1072 IKR=0 XTB=1.5
+ VAF=37.37 VAR=12.5 VJE=0.65 VJC=0.65
+ RE=0.1 RC=1 RB=10
+ CJE=8.307E-12 CJC=5.777E-12 XCJC=0.75 FC=0.5
+ NF=1 NR=1 NE=1.971 NC=2 MJE=0.384 MJC=0.3199
+ TF=385.4E-12 TR=685.3E-12 ITF=0.17 VTF=3 XTF=8
+ EG=1.11 KF=1E-9 AF=1
+ VCEO=25 ICRATING=500E-3 MFG=NSC)

.MODEL 2N3391A NPN(IS=12.03E-15 ISE=2.953E-12 ISC=0 XTI=3
+ BF=427.8 BR=4.379 IKF=0.1072 IKR=0 XTB=1.5
+ VAF=37.37 VAR=12.5 VJE=0.65 VJC=0.65
+ RE=0.1 RC=1 RB=10
+ CJE=8.307E-12 CJC=5.777E-12 XCJC=0.75 FC=0.5
+ NF=1 NR=1 NE=1.971 NC=2 MJE=0.384 MJC=0.3199
+ TF=385.4E-12 TR=701.7E-12 ITF=0.17 VTF=3 XTF=8
+ EG=1.11 KF=1E-9 AF=1
+ VCEO=25 ICRATING=500E-3 MFG=NSC/FAIRCHILD)

.MODEL 2N3392 NPN(IS=12.03E-15 ISE=4.958E-12 ISC=0 XTI=3
+ BF=254.8 BR=4.379 IKF=0.1072 IKR=0 XTB=1.5
+ VAF=37.37 VAR=12.5 VJE=0.65 VJC=0.65
+ RE=0.1 RC=1 RB=10
+ CJE=8.307E-12 CJC=5.777E-12 XCJC=0.75 FC=0.5
+ NF=1 NR=1 NE=1.971 NC=2 MJE=0.384 MJC=0.3199
+ TF=385.4E-12 TR=732.1E-12 ITF=0.17 VTF=3 XTF=8
+ EG=1.11 KF=1E-9 AF=1
+ VCEO=25 ICRATING=500E-3 MFG=NSC)

.MODEL 2N3393 NPN(IS=12.03E-15 ISE=8.195E-12 ISC=0 XTI=3
+ BF=154.1 BR=4.379 IKF=0.1072 IKR=0 XTB=1.5
+ VAF=37.37 VAR=12.5 VJE=0.65 VJC=0.65
+ RE=0.1 RC=1 RB=10
+ CJE=8.307E-12 CJC=5.777E-12 XCJC=0.75 FC=0.5
+ NF=1 NR=1 NE=1.971 NC=2 MJE=0.384 MJC=0.3199
+ TF=385.4E-12 TR=783.8E-12 ITF=0.17 VTF=3 XTF=8
+ EG=1.11 KF=1E-9 AF=1
+ VCEO=25 ICRATING=500M MFG=NSC)

.MODEL 2N3415 NPN(IS=12.03E-15 ISE=3.346E-12 ISC=0 XTI=3
+ BF=377.5 BR=4.379 IKF=0.1072 IKR=0 XTB=1.5
+ VAF=37.37 VAR=12.5 VJE=0.65 VJC=0.65
+ RE=0.1 RC=1 RB=10
+ CJE=8.307E-12 CJC=5.777E-12 XCJC=0.75 FC=0.5
+ NF=1 NR=1 NE=1.971 NC=2 MJE=0.384 MJC=0.3199
+ TF=385.4E-12 TR=707.6E-12 ITF=0.17 VTF=3 XTF=8
+ EG=1.11 KF=1E-9 AF=1
+ VCEO=25 ICRATING=500M MFG=NSC)

.MODEL 2N3416 NPN(IS=12.03E-15 ISE=8.031E-12 ISC=0 XTI=3
+ BF=157.3 BR=4.379 IKF=0.1072 IKR=0 XTB=1.5
+ VAF=37.37 VAR=12.5 VJE=0.65 VJC=0.65
+ RE=0.1 RC=1 RB=10
+ CJE=8.307E-12 CJC=5.777E-12 XCJC=0.75 FC=0.5
+ NF=1 NR=1 NE=1.971 NC=2 MJE=0.384 MJC=0.3199
+ TF=385.4E-12 TR=781.1E-12 ITF=0.17 VTF=3 XTF=8
+ EG=1.11 KF=1E-9 AF=1
+ VCEO=25 ICRATING=500M MFG=NSC)

.MODEL 2N3417 NPN(IS=12.03E-15 ISE=3.346E-12 ISC=0 XTI=3
+ BF=377.5 BR=4.379 IKF=0.1072 IKR=0 XTB=1.5
+ VAF=37.37 VAR=12.5 VJE=0.65 VJC=0.65
+ RE=0.1 RC=1 RB=10
+ CJE=8.307E-12 CJC=5.777E-12 XCJC=0.75 FC=0.5
+ NF=1 NR=1 NE=1.971 NC=2 MJE=0.384 MJC=0.3199
+ TF=385.4E-12 TR=707.6E-12 ITF=0.17 VTF=3 XTF=8
+ EG=1.11 KF=1E-9 AF=1
+ VCEO=45 ICRATING=100M MFG=NSC)

.MODEL 2N3565 NPN(IS=5.911E-15 ISE=5.911E-15 ISC=0 XTI=3
+ BF=697.1 BR=1.297 IKF=13.93E-3 IKR=0 XTB=1.5
+ VAF=62.37 VAR=21.5 VJE=0.65 VJC=0.65
+ RE=0.15 RC=1.61 RB=10
+ CJE=4.973E-12 CJC=4.017E-12 XCJC=0.75 FC=0.5
+ NF=1 NR=1 NE=1.342 NC=2 MJE=0.4146 MJC=0.3174
+ TF=820.4E-12 TR=4.687E-9 ITF=0.35 VTF=4 XTF=7
+ EG=1.11 KF=1E-9 AF=1
+ VCEO=25 ICRATING=50M MFG=NSC)

.MODEL 2N3642 NPN(IS=14.34E-15 ISE=14.34E-15 ISC=0 XTI=3
+ BF=118.6 BR=7.134 IKF=0.2524 IKR=0 XTB=1.5
+ VAF=74.03 VAR=28 VJE=0.65 VJC=0.65
+ RE=0.1 RC=1 RB=10
+ CJE=22.01E-12 CJC=7.306E-12 XCJC=0.75 FC=0.5
+ NF=1 NR=1 NE=1.236 NC=2 MJE=0.377 MJC=0.3416
+ TF=410.3E-12 TR=50.96E-9 ITF=0.6 VTF=1.7 XTF=3
+ EG=1.11 KF=1E-9 AF=1
+ VCEO=45 ICRATING=500E-3 MFG=NSC)

.MODEL 2N3643 NPN(IS=14.34E-15 ISE=14.34E-15 ISC=0 XTI=3
+ BF=255.9 BR=6.092 IKF=0.2847 IKR=0 XTB=1.5
+ VAF=74.03 VAR=28 VJE=0.65 VJC=0.65
+ RE=0.1 RC=1 RB=10
+ CJE=22.01E-12 CJC=7.306E-12 XCJC=0.75 FC=0.5
+ NF=1 NR=1 NE=1.307 NC=2 MJE=0.377 MJC=0.3416
+ TF=411.1E-12 TR=46.91E-9 ITF=0.6 VTF=1.7 XTF=3
+ EG=1.11 KF=1E-9 AF=1
+ VCEO=40 ICRATING=500E-3 MFG=NSC)

.MODEL 2N3646 NPN(IS=1.017E-15 ISE=34.11E-12 ISC=0 XTI=3
+ BF=85.99 BR=3.587 IKF=0.2617 IKR=0 XTB=1.5
+ VAF=100 VAR=30 VJE=0.65 VJC=0.65
+ RE=0.15 RC=1.75 RB=10
+ CJE=8.359E-12 CJC=4.256E-12 XCJC=0.75 FC=0.5
+ NF=1 NR=1 NE=2.048 NC=2 MJE=0.3504 MJC=0.1053
+ TF=289.3E-12 TR=5.32E-9 ITF=0.35 VTF=5 XTF=2
+ EG=1.11 KF=1E-9 AF=1
+ VCEO=15 ICRATING=500M MFG=NSC)

.MODEL 2N3859A NPN(IS=5.911E-15 ISE=5.911E-15 ISC=0 XTI=3
+ BF=393.6 BR=1.372 IKF=12.43E-3 IKR=0 XTB=1.5
+ VAF=62.37 VAR=21.5 VJE=0.65 VJC=0.65
+ RE=0.15 RC=1.61 RB=10
+ CJE=4.973E-12 CJC=4.017E-12 XCJC=0.75 FC=0.5
+ NF=1 NR=1 NE=1.271 NC=2 MJE=0.4146 MJC=0.3174
+ TF=818.2E-12 TR=4.761E-9 ITF=0.35 VTF=4 XTF=7
+ EG=1.11 KF=1E-9 AF=1
+ VCEO=30 ICRATING=100M MFG=NSC)

.MODEL 2N3903 NPN(IS=6.734E-15 ISE=6.734E-15 ISC=0 XTI=3
+ BF=335.2 BR=0.8073 IKF=60.26E-3 IKR=0 XTB=1.5
+ VAF=74.03 VAR=28 VJE=0.65 VJC=0.65
+ RE=0.1 RC=1 RB=10
+ CJE=4.493E-12 CJC=3.638E-12 XCJC=0.75 FC=0.5
+ NF=1 NR=1 NE=1.208 NC=2 MJE=0.2593 MJC=0.3085
+ TF=300.8E-12 TR=243.9E-9 ITF=0.4 VTF=4 XTF=2
+ EG=1.11 KF=1E-9 AF=1
+ VCEO=30 ICRATING=100M MFG=NSC)

.MODEL 2N3904 NPN(IS=5.42E-14 ISE=1.20E-15 ISC=1.08E-11 XTI=3.00
+ BF=3.00E2 BR=1.19E1 IKF=5.58E-2 IKR=1.00 XTB=1.5
+ VAF=2.88E2 VAR=4.18E1 VJE=3.33E-1 VJC=3.83E-1
+ RE=1.29E-2 RC=1.63 RB=1.51E2 RBM=1.00E-2 IRB=1.70E-3
+ CJE=8.54E-12 CJC=4.75E-12 XCJC=1.00 FC=5.00E-1
+ NF=1.09 NR=1.02 NE=1.25 NC=1.66 MJE=3.68E-1 MJC=4.02E-1
+ TF=1.58E-10 TR=238.3E-9 PTF=0 ITF=2.86E-4 VTF=1.90E-1 XTF=4.69
+ EG=1.11 KF=1E-9 AF=1
+ VCEO=40 ICRATING=100M MFG=SIEMENS)

.MODEL 2N4123 NPN(IS=6.734E-15 ISE=6.734E-15 ISC=0 XTI=3
+ BF=335.3 BR=0.7925 IKF=61.27E-3 IKR=0 XTB=1.5
+ VAF=74.03 VAR=28 VJE=0.65 VJC=0.65
+ RE=0.1 RC=1 RB=10
+ CJE=4.493E-12 CJC=3.638E-12 XCJC=0.75 FC=0.5
+ NF=1 NR=1 NE=1.216 NC=2 MJE=0.2593 MJC=0.3085
+ TF=300.8E-12 TR=243.1E-9 ITF=0.4 VTF=4 XTF=2
+ EG=1.11 KF=1E-9 AF=1
+ VCEO=30 ICRATING=100M MFG=NSC)

.MODEL 2N4124 NPN(IS=5.42E-14 ISE=1.20E-15 ISC=1.08E-11 XTI=3.00
+ BF=3.00E2 BR=1.19E1 IKF=5.58E-2 IKR=1.00 XTB=1.5
+ VAF=2.88E2 VAR=4.18E1 VJE=3.33E-1 VJC=3.83E-1
+ RE=1.29E-2 RC=1.63 RB=1.51E2 RBM=1.00E-2 IRB=1.70E-3
+ CJE=8.54E-12 CJC=4.75E-12 XCJC=1.00 FC=5.00E-1
+ NF=1.09 NR=1.02 NE=1.25 NC=1.66 MJE=3.68E-1 MJC=4.02E-1
+ TF=1.58E-10 TR=238.3E-9 PTF=0 ITF=2.86E-4 VTF=1.90E-1 XTF=4.69
+ EG=1.11 KF=1E-9 AF=1
+ VCEO=25 ICRATING=200M MFG=SIEMENS)

.MODEL 2N4141 NPN(IS=14.34E-15 ISE=14.34E-15 ISC=0 XTI=3
+ BF=255.9 BR=6.092 IKF=0.2847 IKR=0 XTB=1.5
+ VAF=74.03 VAR=28 VJE=0.65 VJC=0.65
+ RE=0.1 RC=1 RB=10
+ CJE=22.01E-12 CJC=7.306E-12 XCJC=0.75 FC=0.5
+ NF=1 NR=1 NE=1.307 NC=2 MJE=0.377 MJC=0.3416
+ TF=411.1E-12 TR=46.91E-9 ITF=0.6 VTF=1.7 XTF=3
+ EG=1.11 KF=1E-9 AF=1
+ VCEO=30 ICRATING=500E-3 MFG=NSC)

.MODEL 2N4275 NPN(IS=44.14E-15 ISE=97.82E-15 ISC=0 XTI=3
+ BF=73.62 BR=12.84E-3 IKF=0.3498 IKR=0 XTB=1.5
+ VAF=100 VAR=30 VJE=0.65 VJC=0.65
+ RE=0.06 RC=0.6 RB=10
+ CJE=4.5E-12 CJC=2.83E-12 XCJC=0.75 FC=0.5
+ NF=1 NR=1 NE=1.389 NC=2 MJE=0.2418 MJC=0.862
+ TF=227.6E-12 TR=1.079E-6 ITF=0.3 VTF=4 XTF=4
+ EG=1.11 KF=1E-9 AF=1
+ VCEO=15 ICRATING=200M MFG=NSC)

.MODEL 2N4400 NPN(IS=26.03E-15 ISE=26.7E-15 ISC=0 XTI=3
+ BF=77.56 BR=1.06 IKF=0.2397 IKR=0 XTB=1.5
+ VAF=90.7 VAR=29 VJE=0.65 VJC=0.65
+ RE=0.15 RC=0.5 RB=10
+ CJE=24.07E-12 CJC=11.01E-12 XCJC=0.75 FC=0.5
+ NF=1 NR=1 NE=1.204 NC=2 MJE=0.3641 MJC=0.3763
+ TF=573.2E-12 TR=244E-9 ITF=0 VTF=0 XTF=0
+ EG=1.11 KF=1E-9 AF=1
+ VCEO=40 ICRATING=500M MFG=NSC)

.MODEL 2N4401 NPN(IS=1.75E-12 ISE=5.92E-14 ISC=9.42E-14 XTI=3.00
+ BF=3.03E2 BR=1.00E-2 IKF=2.11E-1 IKR=1.00 XTB=1.5
+ VAF=3.60E2 VAR=1.64E1 VJE=3.00E-1 VJC=3.00E-1
+ RE=1.00E-2 RC=1.07 RB=8.63E1 RBM=1.00E-2 IRB=9.62E-3
+ CJE=2.64E-11 CJC=1.37E-11 XCJC=1.00 FC=5.00E-1
+ NF=1.10 NR=1.71 NE=1.26 NC=1.00 MJE=4.09E-1 MJC=4.89E-1
+ TF=5.16E-10 TR=233.7E-9 PTF=0 ITF=5.09E-1 VTF=1.09E5 XTF=1.64
+ EG=1.11 KF=1E-9 AF=1
+ VCEO=40 ICRATING=500E-3 MFG=SIEMENS)

.MODEL 2N4403 NPN(IS=2.32E-13 ISE=6.69E-16 ISC=1.65E-13 XTI=3.00
+ BF=3.08E2 BR=2.18E1 IKF=8.42E-1 IKR=1.00 XTB=1.5
+ VAF=1.41E2 VAR=1.35E1 VJE=3.49E-1 VJC=3.00E-1
+ RE=1.00E-2 RC=8.46E-1 RB=4.02E1 RBM=1.00E-2 IRB=1.25E-2
+ CJE=2.66E-11 CJC=1.93E-11 XCJC=1.00 FC=5.00E-1
+ NF=1.04 NR=1.12 NE=1.09 NC=1.13 MJE=4.60E-1 MJC=4.65E-1
+ TF=4.95E-10 TR=111.6E-9 PTF=0 ITF=3.36E-1 VTF=6.54 XTF=1.87E1
+ EG=1.11 KF=1E-9 AF=1
+ VCEO=40 ICRATING=500E-3 MFG=SIEMENS)

.MODEL 2N4410 NPN(IS=5.911E-15 ISE=5.911E-15 ISC=0 XTI=3
+ BF=413.6 BR=1.361 IKF=12.6E-3 IKR=0 XTB=1.5
+ VAF=62.37 VAR=21.5 VJE=0.65 VJC=0.65
+ RE=0.15 RC=1.61 RB=10
+ CJE=4.973E-12 CJC=4.017E-12 XCJC=0.75 FC=0.5
+ NF=1 NR=1 NE=1.278 NC=2 MJE=0.4146 MJC=0.3174
+ TF=818.4E-12 TR=4.749E-9 ITF=0.35 VTF=4 XTF=7
+ EG=1.11 KF=1E-9 AF=1
+ VCEO=80 ICRATING=100M MFG=NSC)

.MODEL 2N5088 NPN(IS=5.911E-15 ISE=5.911E-15 ISC=0 XTI=3
+ BF=112 BR=1.271 IKF=14.92E-3 IKR=0 XTB=1.5
+ VAF=62.37 VAR=21.5 VJE=0.65 VJC=0.65
+ RE=0.15 RC=1.61 RB=10
+ CJE=4.973E-12 CJC=4.017E-12 XCJC=0.75 FC=0.5
+ NF=1 NR=1 NE=1.394 NC=2 MJE=0.4146 MJC=0.3174
+ TF=821.7E-12 TR=4.673E-9 ITF=0.35 VTF=4 XTF=7
+ EG=1.11 KF=1E-9 AF=1
+ VCEO=30 ICRATING=100M MFG=NSC)

.MODEL 2N5089 NPN(IS=5.911E-15 ISE=5.911E-15 ISC=0 XTI=3
+ BF=112 BR=1.262 IKF=14.92E-3 IKR=0 XTB=1.5
+ VAF=62.37 VAR=21.5 VJE=0.65 VJC=0.65
+ RE=0.15 RC=1.61 RB=10
+ CJE=4.973E-12 CJC=4.017E-12 XCJC=0.75 FC=0.5
+ NF=1 NR=1 NE=1.421 NC=2 MJE=0.4146 MJC=0.3174
+ TF=822.3E-12 TR=4.671E-9 ITF=0.35 VTF=4 XTF=7
+ EG=1.11 KF=1E-9 AF=1
+ VCEO=25 ICRATING=100M MFG=NSC-FAIRCHILD)

.MODEL 2N5134 NPN(IS=44.14E-15 ISE=116.4E-15 ISC=0 XTI=3
+ BF=61.88 BR=13.33E-3 IKF=0.3498 IKR=0 XTB=1.5
+ VAF=100 VAR=30 VJE=0.65 VJC=0.65
+ RE=0.06 RC=0.6 RB=10
+ CJE=4.5E-12 CJC=2.83E-12 XCJC=0.75 FC=0.5
+ NF=1 NR=1 NE=1.389 NC=2 MJE=0.2418 MJC=0.862
+ TF=227.6E-12 TR=1.097E-6 ITF=0.3 VTF=4 XTF=4
+ EG=1.11 KF=1E-9 AF=1
+ VCEO=10 ICRATING=50M MFG=NSC)

.MODEL 2N5172 NPN(IS=12.03E-15 ISE=4.098E-12 ISC=0 XTI=3
+ BF=308.3 BR=4.379 IKF=0.1072 IKR=0 XTB=1.5
+ VAF=37.37 VAR=12.5 VJE=0.65 VJC=0.65
+ RE=0.1 RC=1 RB=10
+ CJE=8.307E-12 CJC=5.777E-12 XCJC=0.75 FC=0.5
+ NF=1 NR=1 NE=1.971 NC=2 MJE=0.384 MJC=0.3199
+ TF=385.4E-12 TR=718.9E-12 ITF=0.17 VTF=3 XTF=8
+ EG=1.11 KF=1E-9 AF=1
+ VCEO=25 ICRATING=100M MFG=NSC)

.MODEL 2N5179 NPN(IS=69.28E-18 ISE=69.28E-18 ISC=0 XTI=3
+ BF=282.1 BR=1.176 IKF=22.03E-3 IKR=0 XTB=1.5
+ VAF=100 VAR=30 VJE=0.65 VJC=0.65
+ RE=0.15 RC=4 RB=10
+ CJE=1.52E-12 CJC=1.042E-12 XCJC=0.75 FC=0.5
+ NF=1 NR=1 NE=1.177 NC=2 MJE=0.3223 MJC=0.2468
+ TF=135.6E-12 TR=1.588E-9 ITF=0.27 VTF=10 XTF=30
+ EG=1.11 KF=1E-9 AF=1
+ VCEO=12 ICRATING=50M MFG=NSC)

.MODEL 2N5210 NPN(IS=5.911E-15 ISE=5.911E-15 ISC=0 XTI=3
+ BF=809.9 BR=1.287 IKF=14.26E-3 IKR=0 XTB=1.5
+ VAF=62.37 VAR=21.5 VJE=0.65 VJC=0.65
+ RE=0.15 RC=1.61 RB=10
+ CJE=4.973E-12 CJC=4.017E-12 XCJC=0.75 FC=0.5
+ NF=1 NR=1 NE=1.358 NC=2 MJE=0.4146 MJC=0.3174
+ TF=820.9E-12 TR=4.68E-9 ITF=0.35 VTF=4 XTF=7
+ EG=1.11 KF=1E-9 AF=1
+ VCEO=50 ICRATING=100M MFG=NSC-FAIRCHILD)

.MODEL 2N5550 NPN(IS=2.511E-15 ISE=2.511E-15 ISC=0 XTI=3
+ BF=213.4 BR=3.24 IKF=0.3495 IKR=0 XTB=1.5
+ VAF=100 VAR=30 VJE=0.65 VJC=0.65
+ RE=0.1 RC=1 RB=10
+ CJE=18.79E-12 CJC=4.883E-12 XCJC=0.75 FC=0.5
+ NF=1 NR=1 NE=1.241 NC=2 MJE=0.3416 MJC=0.3047
+ TF=560.1E-12 TR=1.212E-9 ITF=50E-3 VTF=5 XTF=8
+ EG=1.11 KF=1E-9 AF=1
+ VCEO=140 ICRATING=500E-3 MFG=NSC-FAIRCHILD)

.MODEL 2N5551 NPN(IS=2.511E-15 ISE=2.511E-15 ISC=0 XTI=3
+ BF=242.6 BR=3.197 IKF=0.3458 IKR=0 XTB=1.5
+ VAF=100 VAR=30 VJE=0.65 VJC=0.65
+ RE=0.1 RC=1 RB=10
+ CJE=18.79E-12 CJC=4.883E-12 XCJC=0.75 FC=0.5
+ NF=1 NR=1 NE=1.249 NC=2 MJE=0.3416 MJC=0.3047
+ TF=560E-12 TR=1.202E-9 ITF=50E-3 VTF=5 XTF=8
+ EG=1.11 KF=1E-9 AF=1
+ VCEO=160 ICRATING=500E-3 MFG=NSC)

.MODEL 2N5769 NPN(IS=44.14E-15 ISE=91.95E-15 ISC=0 XTI=3
+ BF=78.32 BR=12.69E-3 IKF=0.3498 IKR=0 XTB=1.5
+ VAF=100 VAR=30 VJE=0.65 VJC=0.65
+ RE=0.06 RC=0.6 RB=10
+ CJE=4.5E-12 CJC=2.83E-12 XCJC=0.75 FC=0.5
+ NF=1 NR=1 NE=1.389 NC=2 MJE=0.2418 MJC=0.862
+ TF=227.6E-12 TR=1.073E-6 ITF=0.3 VTF=4 XTF=4
+ EG=1.11 KF=1E-9 AF=1
+ VCEO=15 ICRATING=200M MFG=NSC-FAIRCHILD)

.MODEL 2N5772 NPN(IS=44.14E-15 ISE=94.79E-15 ISC=0 XTI=3
+ BF=75.97 BR=12.76E-3 IKF=0.3498 IKR=0 XTB=1.5
+ VAF=100 VAR=30 VJE=0.65 VJC=0.65
+ RE=0.06 RC=0.6 RB=10
+ CJE=4.5E-12 CJC=2.83E-12 XCJC=0.75 FC=0.5
+ NF=1 NR=1 NE=1.389 NC=2 MJE=0.2418 MJC=0.862
+ TF=227.6E-12 TR=1.076E-6 ITF=0.3 VTF=4 XTF=4
+ EG=1.11 KF=1E-9 AF=1
+ VCEO=15 ICRATING=200M MFG=NSC)

.MODEL 2N6428 NPN(IS=45.000E-15 ISE=55.668E-15 ISC=1.084E-12 XTI=3.200
+ BF=516.544 BR=7.745 IKF=0.708 IKR=1.0 XTB=1.400
+ VAF=74.0 VAR=14.0 VJE=0.690 VJC=0.750
+ RE=0.350 RC=1.445 RB=9.0 RBM=4.500 IRB=0.100E-3
+ CJE=13.050E-12 CJC=4.100E-12 XCJC=0.650 FC=0.750
+ NF=1.010 NR=1.015 NE=2.567 NC=4.063 MJE=0.375 MJC=0.420
+ TF=0.620E-9 TR=2.5E-9 PTF=1.0 ITF=0.720 VTF=1.0 XTF=68.0
+ EG=1.110 KF=1E-9 AF=1 MFG=SIEMENS)

.MODEL 2N6429 NPN(IS=45.000E-15 ISE=55.668E-15 ISC=1.084E-12 XTI=3.200
+ BF=516.544 BR=7.745 IKF=0.708 IKR=1.0 XTB=1.400
+ VAF=74.0 VAR=14.0 VJE=0.690 VJC=0.750
+ RE=0.350 RC=1.445 RB=9.0 RBM=4.500 IRB=0.100E-3
+ CJE=13.050E-12 CJC=4.100E-12 XCJC=0.650 FC=0.750
+ NF=1.010 NR=1.015 NE=2.567 NC=4.063 MJE=0.375 MJC=0.420
+ TF=0.620E-9 TR=2.5E-9 PTF=1.0 ITF=0.720 VTF=1.0 XTF=68.0
+ EG=1.110 KF=1E-9 AF=1 MFG=SIEMENS)

.MODEL 2N6715 NPN(IS=2.218E-13 ISE=2.9E-14 ISC=2.971E-13 XTI=3
+ BF=185.2 BR=1.271 IKF=856.8E-3 IKR=0.1 XTB=1.5
+ VAF=100 VAR=30 VJE=0.65 VJC=0.595
+ RE=0.075 RC=0.15 RB=10
+ CJE=318E-12 CJC=51E-12 XCJC=0.75 FC=0.5
+ NF=0.9956 NR=0.995 NE=1.35 NC=1.321 MJE=0.3822 MJC=0.4937
+ TF=0.77E-9 TR=27E-9
+ EG=1.11 KF=1E-9 AF=1
+ VCEO=40 ICRATING=2 MFG=ZETEX)

.MODEL 2N930 NPN(IS=5.911E-15 ISE=5.911E-15 ISC=0 XTI=3
+ BF=578.3 BR=1.313 IKF=13.5E-3 IKR=0 XTB=1.5
+ VAF=62.37 VAR=21.5 VJE=0.65 VJC=0.65
+ RE=0.15 RC=1.61 RB=10
+ CJE=4.973E-12 CJC=4.017E-12 XCJC=0.75 FC=0.5
+ NF=1 NR=1 NE=1.32 NC=2 MJE=0.4146 MJC=0.3174
+ TF=819.8E-12 TR=4.701E-9 ITF=0.35 VTF=4 XTF=7
+ EG=1.11 KF=1E-9 AF=1
+ VCEO=45 ICRATING=100M MFG=NSC)

.MODEL 2SC2873 NPN(IS=3E-13 ISE=1.1E-13 ISC=6.5E-13 XTI=3
+ BF=225 BR=110 IKF=2.8 IKR=0.8 XTB=1.5
+ VAF=80 VAR=28 VJE=0.65 VJC=0.65
+ RE=0.063 RC=0.07 RB=0.3
+ CJE=325E-12 CJC=70E-12 XCJC=0.75 FC=0.5
+ NF=1 NR=0.972 NE=1.37 NC=1.372 MJE=0.33 MJC=0.33
+ TF=1E-9 TR=10E-9
+ EG=1.11 KF=1E-9 AF=1
+ VCEO=45V ICRATING=100M MFG=ZETEX)



.model BC107A   NPN(Is=7.049f Xti=3 Eg=1.11 Vaf=116.3 Bf=375.5 Ise=7.049f
+ Ne=1.281 Ikf=4.589 Nk=.5 Xtb=1.5 Br=2.611 Isc=121.7p Nc=1.865
+ Ikr=5.313 Rc=1.464 Cjc=5.38p Mjc=.329 Vjc=.6218 Fc=.5 Cje=11.5p
+ Mje=.2717 Vje=.5 Tr=10n Tf=451p Itf=6.194 Xtf=17.43 Vtf=10)
+ VCEO=40 ICRATING=100M MFG=PHILIPS)

.model BC107B   NPN(Is=7.049f Xti=3 Eg=1.11 Vaf=59.59 Bf=381.7 Ise=59.74f
+ Ne=1.522 Ikf=3.289 Nk=.5 Xtb=1.5 Br=2.359 Isc=192.9p Nc=1.954
+ Ikr=7.807 Rc=1.427 Cjc=5.38p Mjc=.329 Vjc=.6218 Fc=.5 Cje=11.5p
+Mje=.2718 Vje=.5 Tr=10n Tf=438p Itf=5.716 Xtf=14.51 Vtf=10
+ VCEO=45 ICRATING=100M MFG=PHILIPS)

.model BC109C   NPN(Is=7.049f Xti=3 Eg=1.11 Vaf=28.14 Bf=677 Ise=7.049f Ne=1.38
+Ikf=96.23 Nk=.5 Xtb=1.5 Br=2.209 Isc=250.3p Nc=2.002 Ikr=10.73
+Rc=1.433 Cjc=5.38p Mjc=.329 Vjc=.6218 Fc=.5 Cje=11.5p Mje=.2717
+Vje=.5 Tr=10n Tf=437.8p Itf=3.097 Xtf=12.85 Vtf=10
+ VCEO=45 ICRATING=100M MFG=PHILIPS)

.model BC179A   PNP(Is=336.7f Xti=3 Eg=1.11 Vaf=44.61 Bf=187 Ise=336.8f
+Ne=1.459 Ikf=.2059 Nk=.5081 Xtb=1.5 Br=4.068 Isc=1.121n
+Nc=1.953 Ikr=10.05 Rc=1.86 Cjc=11p Mjc=.2223 Vjc=.5 Fc=.5
+Cje=33p Mje=.3333 Vje=.5 Tr=10n Tf=845.5p Itf=1.701 Xtf=19.04 Vtf=10
+ VCEO=20 ICRATING=100M MFG=PHILIPS)

.model BC179B   PNP(Is=336.7f Xti=3 Eg=1.11 Vaf=30.75 Bf=271.9 Ise=2.821p
+Ne=1.925 Ikf=.2462 Nk=.5416 Xtb=1.5 Br=3.009 Isc=1.753n
+Nc=2.075 Ikr=8.143 Rc=1.803 Cjc=11p Mjc=.2223 Vjc=.5 Fc=.5
+Cje=33p Mje=.3333 Vje=.5 Tr=10n Tf=846p Itf=1.546 Xtf=18.27 Vtf=10
+ VCEO=20 ICRATING=100M MFG=PHILIPS)

.MODEL BC182B NPN(IS=1.8E-14 ISE=5.0E-14 ISC=1.72E-13 XTI=3
+ BF=400 BR=35.5 IKF=0.14 IKR=0.03 XTB=1.5
+ VAF=80 VAR=12.5 VJE=0.58 VJC=0.54
+ RE=0.6 RC=0.25 RB=0.56
+ CJE=13E-12 CJC=4E-12 XCJC=0.75 FC=0.5
+ NF=0.9955 NR=1.005 NE=1.46 NC=1.27 MJE=0.33 MJC=0.33
+ TF=0.64E-9 TR=50.72E-9
+ EG=1.11 KF=1E-9 AF=1
+ VCEO=45V ICRATING=100M MFG=ZETEX)

.MODEL BC237B NPN(IS=1.8E-14 ISE=5.0E-14 ISC=1.72E-13 XTI=3
+ BF=400 BR=35.5 IKF=0.14 IKR=0.03 XTB=1.5
+ VAF=80 VAR=12.5 VJE=0.58 VJC=0.54
+ RE=0.6 RC=0.25 RB=0.56
+ CJE=13E-12 CJC=4E-12 XCJC=0.75 FC=0.5
+ NF=0.9955 NR=1.005 NE=1.46 NC=1.27 MJE=0.33 MJC=0.33
+ TF=0.64E-9 TR=50.72E-9
+ EG=1.11 KF=1E-9 AF=1
+ VCEO=45V ICRATING=100M MFG=ZETEX)

.MODEL BC337-16 NPN(IS=4.887E-14 ISE=2.552E-15 ISC=7.006E-14 XTI=3
+ BF=207.2 BR=21.85 IKF=0.902 IKR=0.1 XTB=1.5
+ VAF=184.8 VAR=20 VJE=0.6596 VJC=0.1419
+ RE=0.119 RC=0.25 RB=50 RBM=2 IRB=0.0002
+ CJE=4.217E-11 CJC=1.734E-11 XCJC=0.455 FC=0.652
+ NF=1.002 NR=1.002 NE=1.65 NC=1.25 MJE=0.3434 MJC=0.3484
+ TF=6E-10 TR=3.5E-08 PTF=86 ITF=0.79 VTF=2.4 XTF=2.1
+ EG=1.11 KF=1E-9 AF=1
+ VCEO=45 ICRATING=200M MFG=PHILIPS)

.MODEL BC337-25 NPN(IS=4.13E-14 ISE=3.534E-15 ISC=1.957E-13 XTI=3
+ BF=292.4 BR=23.68 IKF=0.9 IKR=0.1 XTB=1.5
+ VAF=145.7 VAR=20 VJE=0.6752 VJC=0.3523
+ RE=0.1129 RC=0.25 RB=60 RBM=8 IRB=0.0002
+ CJE=3.799E-11 CJC=1.355E-11 XCJC=0.455 FC=0.643
+ NF=0.9822 NR=0.982 NE=1.35 NC=1.3 MJE=0.3488 MJC=0.3831
+ TF=5.4E-10 TR=3E-08 PTF=90 ITF=0.665 VTF=4.448 XTF=4
+ EG=1.11 KF=1E-9 AF=1
+ VCEO=45 ICRATING=200M MFG=PHILIPS)

.MODEL BC337-40 NPN(IS=7.809E-14 ISE=2.069E-15 ISC=6.66E-14 XTI=3
+ BF=436.8 BR=44.14 IKF=0.8 IKR=0.09 XTB=1.5
+ VAF=103.6 VAR=14 VJE=0.6657 VJC=0.3647
+ RE=0.12 RC=0.24 RB=70 RBM=8 IRB=0.0002
+ CJE=3.579E-11 CJC=1.306E-11 XCJC=0.455 FC=0.843
+ NF=0.9916 NR=0.991 NE=1.4 NC=1.2 MJE=0.3596 MJC=0.3658
+ TF=5E-10 TR=2.5E-08 PTF=88 ITF=0.5 VTF=2 XTF=2.5
+ EG=1.11 KF=1E-9 AF=1
+ VCEO=45 ICRATING=200M MFG=PHILIPS)

.MODEL BC337S NPN(IS=0.180E-12 ISE=8.480E-15 ISC=0.102E-12 XTI=4.800
+ BF=449.302 BR=16.919 IKF=0.820 IKR=0.663 XTB=1.500
+ VAF=95.0 VAR=13.0 VJE=0.850 VJC=0.780
+ RE=0.170 RC=0.289 RB=0.750 RBM=0.375 IRB=0.100E-3
+ CJE=63.400E-12 CJC=16.600E-12 XCJC=0.650 FC=0.750
+ NF=1.0 NR=1.005 NE=1.566 NC=1.764 MJE=0.372 MJC=0.433
+ TF=0.810E-9 TR=2.600E-9 PTF=1.0 ITF=0.450 VTF=1.500 XTF=4.300
+ EG=1.110 KF=1E-9 AF=1
+ VCEO=45 ICRATING=200M MFG=SIEMENS)

.MODEL BC368P NPN(IS=2.474E-13 ISE=4.403E-14 ISC=2.009E-13 XTI=3
+ BF=196.2 BR=30.57 IKF=4.8360 IKR=0.3264 XTB=1.5
+ VAF=127.5 VAR=17.26 VJE=0.8011 VJC=0.5995
+ RE=0.1021 RC=9.070E-02 RB=1 RBM=1 IRB=1E-06
+ CJE=2.2260E-10 CJC=8.735E-11 XCJC=0.500 FC=0.6153
+ NF=0.9998 NR=0.9995 NE=1.400 NC=1.500 MJE=0.3833 MJC=0.4009
+ TF=6.469E-10 TR=1E-32 PTF=0 ITF=0.3542 VTF=1.735 XTF=1.257
+ EG=1.11 KF=1E-9 AF=1
+ VCEO=25 ICRATING=500E-3 MFG=PHILIPS)

.MODEL BC368S NPN(IS=9.77E-14 ISE=1.49E-16 ISC=4.11E-14 XTI=3.00
+ BF=1.61E2 BR=3.66 IKF=7.74 IKR=1.00 XTB=1.5
+ VAF=5.63E2 VAR=3.49E1 VJE=3.00E-1 VJC=3.00E-1
+ RE=1.01E-2 RC=2.06E-1 RB=1.91E1 RBM=3.03 IRB=6.95E-2
+ CJE=2.52E-10 CJC=1.37E-10 XCJC=1.00 FC=5.00E-1
+ NF=9.64E-1 NR=1.23 NE=1.01 NC=1.02 MJE=4.11E-1 MJC=4.87E-1
+ TF=1.38E-9 TR=0 PTF=0 ITF=1.00E1 VTF=9.99E5 XTF=3.26E1
+ EG=1.11 KF=1E-9 AF=1
+ VCEO=40 ICRATING=800M MFG=SIEMENS)

.MODEL BC384C NPN(IS=1.8E-14 ISE=5.0E-14 ISC=1.72E-13 XTI=3
+ BF=325 BR=35.5 IKF=0.14 IKR=0.03 XTB=1.5
+ VAF=80 VAR=12.5 VJE=0.58 VJC=0.54
+ RE=0.6 RC=0.25 RB=0.56
+ CJE=13E-12 CJC=4E-12 XCJC=0.75 FC=0.5
+ NF=0.9955 NR=1.005 NE=1.46 NC=1.27 MJE=0.33 MJC=0.33
+ TF=0.64E-9 TR=50.72E-9
+ EG=1.11 KF=1E-9 AF=1
+ VCEO=45V ICRATING=100M MFG=ZETEX)

.MODEL BC414B NPN(IS=1.8E-14 ISE=5.0E-14 ISC=1.72E-13 XTI=3
+ BF=400 BR=35.5 IKF=0.14 IKR=0.03 XTB=1.5
+ VAF=80 VAR=12.5 VJE=0.58 VJC=0.54
+ RE=0.6 RC=0.25 RB=0.56
+ CJE=13E-12 CJC=4E-12 XCJC=0.75 FC=0.5
+ NF=0.9955 NR=1.005 NE=1.46 NC=1.27 MJE=0.33 MJC=0.33
+ TF=0.64E-9 TR=50.72E-9
+ EG=1.11 KF=1E-9 AF=1
+ VCEO=45V ICRATING=100M MFG=ZETEX)

.MODEL BC547A NPN(IS=1.533E-14 ISE=7.932E-16 ISC=8.305E-14 XTI=3
+ BF=178.7 BR=8.628 IKF=0.1216 IKR=0.1121 XTB=1.5
+ VAF=69.7 VAR=44.7 VJE=0.4209 VJC=0.2
+ RE=0.6395 RC=0.6508 RB=1 RBM=1 IRB=1E-06
+ CJE=1.61E-11 CJC=4.388E-12 XCJC=0.6193 FC=0.7762
+ NF=1.002 NR=1.004 NE=1.436 NC=1.207 MJE=0.3071 MJC=0.2793
+ TF=4.995E-10 TR=1E-32 PTF=0 ITF=0.7021 VTF=3.523 XTF=139
+ EG=1.11 KF=1E-9 AF=1
+ VCEO=45 ICRATING=100M MFG=PHILIPS)

.MODEL BC547B NPN(IS=2.39E-14 ISE=3.545E-15 ISC=6.272E-14 XTI=3
+ BF=294.3 BR=7.946 IKF=0.1357 IKR=0.1144 XTB=1.5
+ VAF=63.2 VAR=25.9 VJE=0.65 VJC=0.3997
+ RE=0.4683 RC=0.85 RB=1 RBM=1 IRB=1E-06
+ CJE=1.358E-11 CJC=3.728E-12 XCJC=0.6193 FC=0.9579
+ NF=1.008 NR=1.004 NE=1.541 NC=1.243 MJE=0.3279 MJC=0.2955
+ TF=4.391E-10 TR=1E-32 PTF=0 ITF=0.7495 VTF=2.643 XTF=120
+ EG=1.11 KF=1E-9 AF=1
+ VCEO=45 ICRATING=100M MFG=PHILIPS)

.MODEL BC547C NPN(IS=4.679E-14 ISE=2.642E-15 ISC=2.337E-14 XTI=3
+ BF=458.7 BR=11.57 IKF=0.1371 IKR=0.1144 XTB=1.5
+ VAF=52.64 VAR=364.5 VJE=0.5591 VJC=0.1994
+ RE=0.2598 RC=1 RB=1 RBM=1 IRB=1E-06
+ CJE=1.229E-11 CJC=4.42E-12 XCJC=0.6193 FC=0.7936
+ NF=1.01 NR=1.019 NE=1.581 NC=1.164 MJE=0.3385 MJC=0.2782
+ TF=4.689E-10 TR=1E-32 PTF=0 ITF=0.8842 VTF=2.828 XTF=160
+ EG=1.11 KF=1E-9 AF=1
+ VCEO=45 ICRATING=100M MFG=PHILIPS)

.MODEL BC548C NPN(IS=1.95E-14 ISE=1.31E-15 ISC=1.00E-13 XTI=3.00
+ BF=4.66E2 BR=2.42 IKF=1.80E-1 IKR=1.00 XTB=1.5
+ VAF=9.17E1 VAR=2.47E1 VJE=6.32E-1 VJC=3.39E-1
+ RE=1.00 RC=1.73 RB=2.65E1 RBM=1.00E1 IRB=1.00E1
+ CJE=1.33E-11 CJC=5.17E-12 XCJC=1.00 FC=9.00E-1
+ NF=9.93E-1 NR=1.20 NE=1.32 NC=2.00 MJE=3.26E-1 MJC=3.19E-1
+ TF=6.52E-10 TR=0 PTF=0 ITF=1.03 VTF=1.65 XTF=1.00E2
+ EG=1.11 KF=1E-9 AF=1
+ VCEO=40 ICRATING=800M MFG=SIEMENS)

.MODEL BC549B NPN(IS=4.679E-14 ISE=2.642E-15 ISC=2.337E-14 XTI=3
+ BF=458.7 BR=11.57 IKF=0.1371 IKR=0.1144 XTB=1.5
+ VAF=52.64 VAR=364.5 VJE=0.5591 VJC=0.1994
+ RE=0.2598 RC=1 RB=1 RBM=1 IRB=1E-06
+ CJE=1.229E-11 CJC=4.42E-12 XCJC=0.6193 FC=0.7936
+ NF=1.01 NR=1.019 NE=1.581 NC=1.164 MJE=0.3385 MJC=0.2782
+ TF=4.689E-10 TR=1E-32 PTF=0 ITF=0.8842 VTF=2.828 XTF=160
+ EG=1.11 KF=1E-9 AF=1
+ VCEO=25 ICRATING=100M MFG=PHILIPS)

.model BC549C   NPN(Is=7.049f Xti=3 Eg=1.11 Vaf=23.89 Bf=493.2 Ise=99.2f
+ Ne=1.829 Ikf=.1542 Nk=.6339 Xtb=1.5 Br=2.886 Isc=7.371p
+ Nc=1.508 Ikr=5.426 Rc=1.175 Cjc=5.5p Mjc=.3132 Vjc=.4924 Fc=.5
+ Cje=11.5p Mje=.6558 Vje=.5 Tr=10n Tf=420.3p Itf=1.374 Xtf=39.42 Vtf=10
+ VCEO=30 ICRATING=100M MFG=PHILIPS)

.MODEL BC550B NPN(IS=1.8E-14 ISE=5.0E-14 ISC=1.72E-13 XTI=3
+ BF=400 BR=35.5 IKF=0.14 IKR=0.03 XTB=1.5
+ VAF=80 VAR=12.5 VJE=0.58 VJC=0.54
+ RE=0.6 RC=0.25 RB=0.56
+ CJE=13E-12 CJC=4E-12 XCJC=0.75 FC=0.5
+ NF=0.9955 NR=1.005 NE=1.46 NC=1.27 MJE=0.33 MJC=0.33
+ TF=0.64E-9 TR=50.72E-9
+ EG=1.11 KF=1E-9 AF=1
+ VCEO=50 ICRATING=100M MFG=ZETEX)

.MODEL BC637 NPN(IS=3.06E-15 ISE=1.62E-16 ISC=4.08E-14 XTI=3.00
+ BF=1.29E2 BR=2.92 IKF=9.06E-1 IKR=1.00 XTB=1.5
+ VAF=7.24E2 VAR=5.46E1 VJE=3.00E-1 VJC=3.00E-1
+ RE=1.26E-2 RC=3.11E-1 RB=1.65E1 RBM=1.73E-2 IRB=2.38E-2
+ CJE=1.17E-10 CJC=4.85E-11 XCJC=1.00 FC=5.00E-1
+ NF=8.55E-1 NR=9.10E-1 NE=1.00 NC=1.00 MJE=4.22E-1 MJC=5.09E-1
+ TF=1.42E-9 TR=0 PTF=0 ITF=5.64E-1 VTF=9.99E5 XTF=7.75E-1
+ EG=1.11 KF=1E-9 AF=1
+ VCEO=40 ICRATING=800M MFG=SIEMENS)

.MODEL BCP55S NPN(IS=3.06E-15 ISE=1.62E-16 ISC=4.08E-14 XTI=3.00
+ BF=1.29E2 BR=2.92 IKF=9.06E-1 IKR=1.00 XTB=1.5
+ VAF=7.24E2 VAR=5.46E1 VJE=3.00E-1 VJC=3.00E-1
+ RE=1.26E-2 RC=3.11E-1 RB=1.65E1 RBM=1.73E-2 IRB=2.38E-2
+ CJE=1.17E-10 CJC=4.85E-11 XCJC=1.00 FC=5.00E-1
+ NF=8.55E-1 NR=9.10E-1 NE=1.00 NC=1.00 MJE=4.22E-1 MJC=5.09E-1
+ TF=1.42E-9 TR=0 PTF=0 ITF=5.64E-1 VTF=9.99E5 XTF=7.75E-1
+ EG=1.11 KF=1E-9 AF=1
+ VCEO=40 ICRATING=800M MFG=SIEMENS)

.MODEL BCP55P NPN(IS=6.119E-14 ISE=5.844E-15 ISC=1.342E-13 XTI=3
+ BF=130.4 BR=14.53 IKF=0.8 IKR=0.2049 XTB=1.5
+ VAF=54.27 VAR=30 VJE=0.6917 VJC=0.5
+ RE=0.1114 RC=0.082 RB=0.5 RBM=0.5 IRB=1E-06
+ CJE=1.234E-10 CJC=3.49E-11 XCJC=0.15 FC=0.9232
+ NF=0.9948 NR=0.9905 NE=1.469 NC=1.183 MJE=0.338 MJC=0.388
+ TF=6.543E-10 TR=1E-32 PTF=0 ITF=10 VTF=1.892 XTF=223.8
+ EG=1.11 KF=1E-9 AF=1 MFG=PHILIPS)

.MODEL BCP68P NPN(IS=2.474E-13 ISE=4.403E-14 ISC=2.009E-13 XTI=3
+ BF=196.2 BR=30.57 IKF=4.836 IKR=0.3264 XTB=1.5
+ VAF=127.5 VAR=17.26 VJE=0.8011 VJC=0.5995
+ RE=0.1021 RC=0.0252 RB=1 RBM=1 IRB=1E-06
+ CJE=2.226E-10 CJC=8.735E-11 XCJC=0.5 FC=0.6153
+ NF=0.9998 NR=0.9995 NE=1.4 NC=1.5 MJE=0.3833 MJC=0.4009
+ TF=6.469E-10 TR=1E-32 PTF=0 ITF=0.3542 VTF=1.735 XTF=1.257
+ EG=1.11 KF=1E-9 AF=1 MFG=PHILIPS)

.MODEL BCP68S NPN(IS=9.77E-14 ISE=1.49E-16 ISC=4.11E-14 XTI=3.00
+ BF=1.61E2 BR=3.66 IKF=7.74 IKR=1.00 XTB=1.5
+ VAF=5.63E2 VAR=3.49E1 VJE=3.00E-1 VJC=3.00E-1
+ RE=1.01E-2 RC=2.06E-1 RB=1.91E1 RBM=3.03 IRB=6.95E-2
+ CJE=2.52E-10 CJC=1.37E-10 XCJC=1.00 FC=5.00E-1
+ NF=9.64E-1 NR=1.23 NE=1.01 NC=1.02 MJE=4.11E-1 MJC=4.87E-1
+ TF=1.38E-9 TR=0 PTF=0 ITF=1.00E1 VTF=9.99E5 XTF=3.26E1
+ EG=1.11 KF=1E-9 AF=1
+ VCEO=40 ICRATING=800M MFG=SIEMENS)

.MODEL BCV61A NPN(IS=45.000E-15 ISE=55.668E-15 ISC=1.084E-12 XTI=3.200
+ BF=180 BR=7.745 IKF=0.708 IKR=1.0 XTB=1.400
+ VAF=74.0 VAR=14.0 VJE=0.690 VJC=0.750
+ RE=0.350 RC=1.445 RB=9.0 RBM=4.500 IRB=0.100E-3
+ CJE=13.050E-12 CJC=4.100E-12 XCJC=0.650 FC=0.750
+ NF=1.010 NR=1.015 NE=2.567 NC=4.063 MJE=0.375 MJC=0.420
+ TF=0.620E-9 TR=2.5E-9 PTF=1.0 ITF=0.720 VTF=1.0 XTF=68.0
+ EG=1.110 KF=1E-9 AF=1 MFG=SIEMENS)

.MODEL BCV61B NPN(IS=45.000E-15 ISE=55.668E-15 ISC=1.084E-12 XTI=3.200
+ BF=280 BR=7.745 IKF=0.708 IKR=1.0 XTB=1.400
+ VAF=74.0 VAR=14.0 VJE=0.690 VJC=0.750
+ RE=0.350 RC=1.445 RB=9.0 RBM=4.500 IRB=0.100E-3
+ CJE=13.050E-12 CJC=4.100E-12 XCJC=0.650 FC=0.750
+ NF=1.010 NR=1.015 NE=2.567 NC=4.063 MJE=0.375 MJC=0.420
+ TF=0.620E-9 TR=2.5E-9 PTF=1.0 ITF=0.720 VTF=1.0 XTF=68.0
+ EG=1.110 KF=1E-9 AF=1 MFG=SIEMENS)

.MODEL BCV61C NPN(IS=45.000E-15 ISE=55.668E-15 ISC=1.084E-12 XTI=3.200
+ BF=480 BR=7.745 IKF=0.708 IKR=1.0 XTB=1.400
+ VAF=74.0 VAR=14.0 VJE=0.690 VJC=0.750
+ RE=0.350 RC=1.445 RB=9.0 RBM=4.500 IRB=0.100E-3
+ CJE=13.050E-12 CJC=4.100E-12 XCJC=0.650 FC=0.750
+ NF=1.010 NR=1.015 NE=2.567 NC=4.063 MJE=0.375 MJC=0.420
+ TF=0.620E-9 TR=2.5E-9 PTF=1.0 ITF=0.720 VTF=1.0 XTF=68.0
+ EG=1.110 KF=1E-9 AF=1 MFG=SIEMENS)

.MODEL BCW65 NPN(IS=0.180E-12 ISE=8.480E-15 ISC=0.102E-12 XTI=4.800
+ BF=449.302 BR=16.919 IKF=0.820 IKR=0.663 XTB=1.500
+ VAF=95.0 VAR=13.0 VJE=0.850 VJC=0.780
+ RE=0.170 RC=0.289 RB=0.750 RBM=0.375 IRB=0.100E-3
+ CJE=63.400E-12 CJC=16.600E-12 XCJC=0.650 FC=0.750
+ NF=1.0 NR=1.005 NE=1.566 NC=1.764 MJE=0.372 MJC=0.433