Version 4
SHEET 1 1532 740
WIRE 304 96 208 96
WIRE 560 96 304 96
WIRE 768 96 624 96
WIRE 896 96 768 96
WIRE 1104 96 976 96
WIRE 1360 96 1104 96
WIRE 1488 96 1360 96
WIRE 1520 96 1488 96
WIRE 208 176 208 96
WIRE 768 176 768 96
WIRE 1104 176 1104 96
WIRE 1360 224 1360 96
WIRE 208 320 208 256
WIRE 768 448 768 256
WIRE 1104 448 1104 240
WIRE 1360 448 1360 304
FLAG 304 96 vin
FLAG 208 320 0
FLAG 1488 96 vout
FLAG 768 448 0
FLAG 1104 448 0
FLAG 1360 448 0
SYMBOL voltage 208 160 R0
WINDOW 39 0 0 Left 0
SYMATTR InstName V1
SYMATTR Value PWL file=sig_in.csv
SYMBOL cap 624 80 R90
WINDOW 0 0 32 VBottom 2
WINDOW 3 32 32 VTop 2
SYMATTR InstName C1
SYMATTR Value {C1}
SYMBOL res 992 80 R90
WINDOW 0 0 56 VBottom 2
WINDOW 3 32 56 VTop 2
SYMATTR InstName R2
SYMATTR Value 50R
SYMBOL cap 1088 176 R0
SYMATTR InstName C2
SYMATTR Value {C2}
SYMBOL res 1376 320 R180
WINDOW 0 36 76 Left 2
WINDOW 3 36 40 Left 2
SYMATTR InstName R3
SYMATTR Value 50R
SYMBOL res 784 272 R180
WINDOW 0 36 76 Left 2
WINDOW 3 36 40 Left 2
SYMATTR InstName R1
SYMATTR Value 50R
TEXT 248 568 Left 2 !.tran 0 {transtop} 0 {timestep} startup
TEXT 248 648 Left 2 !.include param.txt
TEXT 248 608 Left 2 !.include trancmd.txt
TEXT 456 696 Left 2 ;do not edit this by hand
RECTANGLE Normal 752 736 208 512 2
