Version 4
SHEET 1 25452 10420
WIRE 19504 4528 19232 4528
WIRE 19600 4528 19504 4528
WIRE 19600 4720 19600 4528
WIRE 19504 4752 19504 4528
WIRE 19600 4944 19600 4784
WIRE 19504 5072 19504 4816
WIRE 19600 5072 19600 5008
WIRE 19600 5072 19504 5072
WIRE 19936 5072 19600 5072
WIRE 20016 5072 19936 5072
WIRE 19504 5264 19504 5072
WIRE 19504 5440 19504 5344
WIRE 19232 5664 19232 4528
WIRE 19232 5664 18416 5664
WIRE 19792 5664 19232 5664
WIRE 20592 5664 19792 5664
WIRE 18784 5776 18592 5776
WIRE 18992 5776 18784 5776
WIRE 20144 5776 18992 5776
WIRE 20992 5776 20144 5776
WIRE 18416 5824 18416 5664
WIRE 18592 5824 18592 5776
WIRE 19792 5840 19792 5664
WIRE 18784 5888 18784 5776
WIRE 20592 5904 20592 5664
WIRE 18416 5936 18416 5904
WIRE 18592 5936 18592 5904
WIRE 20528 5952 20368 5952
WIRE 19792 5984 19792 5920
WIRE 18992 6016 18992 5776
WIRE 19280 6032 19152 6032
WIRE 19648 6032 19280 6032
WIRE 19728 6032 19648 6032
WIRE 18784 6064 18784 5968
WIRE 18832 6064 18784 6064
WIRE 18928 6064 18912 6064
WIRE 20368 6064 20368 5952
WIRE 20432 6064 20368 6064
WIRE 20592 6064 20592 6000
WIRE 20592 6064 20512 6064
WIRE 19152 6080 19152 6032
WIRE 19280 6080 19280 6032
WIRE 19648 6080 19648 6032
WIRE 20368 6112 20368 6064
WIRE 20144 6160 20144 5776
WIRE 18256 6208 18160 6208
WIRE 18432 6208 18256 6208
WIRE 18640 6208 18432 6208
WIRE 18672 6208 18640 6208
WIRE 18784 6208 18784 6064
WIRE 18784 6208 18736 6208
WIRE 19584 6208 19504 6208
WIRE 19648 6208 19648 6160
WIRE 19648 6208 19584 6208
WIRE 20992 6208 20992 5776
WIRE 20144 6256 20144 6224
WIRE 20144 6256 20016 6256
WIRE 20192 6256 20144 6256
WIRE 20368 6256 20368 6192
WIRE 20368 6256 20256 6256
WIRE 20592 6256 20592 6064
WIRE 20768 6256 20592 6256
WIRE 20896 6256 20848 6256
WIRE 20928 6256 20896 6256
WIRE 18160 6288 18160 6208
WIRE 18432 6304 18432 6208
WIRE 18992 6304 18992 6112
WIRE 19040 6304 18992 6304
WIRE 19152 6304 19152 6160
WIRE 19152 6304 19104 6304
WIRE 19280 6320 19280 6160
WIRE 20592 6320 20592 6256
WIRE 19792 6336 19792 6080
WIRE 19904 6336 19792 6336
WIRE 20016 6336 20016 6256
WIRE 20016 6336 19968 6336
WIRE 18640 6368 18640 6208
WIRE 18752 6368 18640 6368
WIRE 20768 6368 20720 6368
WIRE 20896 6368 20896 6256
WIRE 20896 6368 20848 6368
WIRE 20992 6384 20992 6304
WIRE 21152 6384 20992 6384
WIRE 21344 6384 21216 6384
WIRE 21424 6384 21344 6384
WIRE 19792 6416 19792 6336
WIRE 18160 6432 18160 6368
WIRE 18432 6432 18432 6384
WIRE 18752 6432 18752 6368
WIRE 18752 6432 18720 6432
WIRE 18784 6432 18752 6432
WIRE 18992 6432 18992 6304
WIRE 20368 6448 20368 6256
WIRE 20992 6448 20992 6384
WIRE 18720 6464 18720 6432
WIRE 18784 6464 18784 6432
WIRE 20720 6496 20720 6368
WIRE 18720 6576 18720 6528
WIRE 18784 6576 18784 6528
WIRE 18992 6576 18992 6512
WIRE 19792 6576 19792 6496
WIRE 20368 6576 20368 6512
WIRE 20592 6576 20592 6400
WIRE 20992 6576 20992 6528
WIRE 19280 6816 19280 6384
WIRE 19456 6816 19280 6816
WIRE 19552 6816 19456 6816
WIRE 19712 6816 19632 6816
WIRE 19792 6816 19712 6816
WIRE 19936 6816 19792 6816
WIRE 19968 6816 19936 6816
WIRE 20080 6816 20048 6816
WIRE 19712 6864 19712 6816
WIRE 19792 6864 19792 6816
WIRE 19936 6864 19936 6816
WIRE 20080 6864 20080 6816
WIRE 19456 6880 19456 6816
WIRE 19616 6896 19504 6896
WIRE 20720 6928 20720 6560
WIRE 19552 6944 19504 6944
WIRE 19712 6960 19712 6928
WIRE 19792 6960 19792 6928
WIRE 19792 6960 19712 6960
WIRE 19792 6976 19792 6960
WIRE 19936 6976 19936 6944
WIRE 20080 6976 20080 6944
WIRE 19456 7024 19456 6960
WIRE 19616 7024 19616 6896
WIRE 19552 7136 19552 6944
WIRE 19616 7136 19616 7104
WIRE 19616 7136 19552 7136
WIRE 19616 7184 19616 7136
FLAG 19792 6576 0
FLAG 18432 6432 0
FLAG 20368 6576 0
FLAG 20592 6576 0
FLAG 20992 6576 0
FLAG 18784 6576 0
FLAG 18720 6576 0
FLAG 18592 5936 0
FLAG 18992 6576 0
FLAG 18416 5936 0
FLAG 19504 5440 0
FLAG 18256 6208 vin
FLAG 18160 6432 0
FLAG 21344 6384 vout
FLAG 19456 7024 0
FLAG 19616 7184 0
FLAG 20080 6976 0
FLAG 19936 6976 0
FLAG 19792 6976 0
FLAG 19584 6208 vbase_pnp
FLAG 19936 5072 vbase_pnp
SYMBOL pnp 19728 6080 M180
SYMATTR InstName Q2
SYMATTR Value MMBTH81
SYMBOL res 19776 6400 R0
SYMATTR InstName R20
SYMATTR Value 1k
SYMBOL res 19776 5824 R0
SYMATTR InstName R21
SYMATTR Value 10
SYMBOL voltage 18416 5808 R0
WINDOW 123 0 0 Left 2
WINDOW 39 14 99 Left 2
WINDOW 0 -52 16 Left 2
WINDOW 3 -131 97 Left 2
SYMATTR InstName V7
SYMATTR Value {v_hv}
SYMBOL res 19168 6176 R180
WINDOW 0 36 76 Left 2
WINDOW 3 36 40 Left 2
SYMATTR InstName R22
SYMATTR Value 220
SYMBOL res 18416 6288 R0
SYMATTR InstName R23
SYMATTR Value 50
SYMBOL cap 18736 6192 R90
WINDOW 0 0 32 VBottom 2
WINDOW 3 32 32 VTop 2
SYMATTR InstName C13
SYMATTR Value 100n
SYMBOL cap 19968 6320 R90
WINDOW 0 0 32 VBottom 2
WINDOW 3 32 32 VTop 2
SYMATTR InstName C14
SYMATTR Value 100n
SYMBOL cap 20352 6448 R0
SYMATTR InstName C15
SYMATTR Value 22p
SYMBOL schottky 20128 6160 R0
WINDOW 3 -122 32 Left 2
SYMATTR Value BAS40HM
SYMATTR InstName D7
SYMATTR Description Diode
SYMATTR Type diode
SYMBOL schottky 20192 6272 R270
WINDOW 3 0 32 VBottom 2
WINDOW 0 32 32 VTop 2
SYMATTR Value BAS40HM
SYMATTR InstName D8
SYMATTR Description Diode
SYMATTR Type diode
SYMBOL res 20384 6208 R180
WINDOW 0 36 76 Left 2
WINDOW 3 36 40 Left 2
SYMATTR InstName R24
SYMATTR Value 50
SYMBOL res 20576 6304 R0
SYMATTR InstName R25
SYMATTR Value 2.2k
SYMBOL npn 20528 5904 R0
SYMATTR InstName Q7
SYMATTR Value MMBT3904
SYMBOL res 20528 6048 R90
WINDOW 0 0 56 VBottom 2
WINDOW 3 32 56 VTop 2
SYMATTR InstName R26
SYMATTR Value 3.9k
SYMBOL res 20864 6240 R90
WINDOW 0 0 56 VBottom 2
WINDOW 3 32 56 VTop 2
SYMATTR InstName R27
SYMATTR Value 10k
SYMBOL res 21008 6544 R180
WINDOW 0 36 76 Left 2
WINDOW 3 36 40 Left 2
SYMATTR InstName R28
SYMATTR Value 470
SYMBOL cap 21216 6368 R90
WINDOW 0 0 32 VBottom 2
WINDOW 3 32 32 VTop 2
SYMATTR InstName C16
SYMATTR Value 100n
SYMBOL diode 18736 6528 R180
WINDOW 0 24 64 Left 2
WINDOW 3 24 0 Left 2
SYMATTR InstName D13
SYMATTR Value BAV99HM
SYMBOL diode 18768 6464 R0
SYMATTR InstName D14
SYMATTR Value BAV99HM
SYMBOL res 18928 6048 R90
WINDOW 0 0 56 VBottom 2
WINDOW 3 32 56 VTop 2
SYMATTR InstName R29
SYMATTR Value 50
SYMBOL res 19008 6528 R180
WINDOW 0 36 76 Left 2
WINDOW 3 36 40 Left 2
SYMATTR InstName R30
SYMATTR Value 470
SYMBOL voltage 18592 5808 R0
SYMATTR InstName V9
SYMATTR Value 3
SYMBOL cap 19104 6288 R90
WINDOW 0 0 32 VBottom 2
WINDOW 3 32 32 VTop 2
SYMATTR InstName C17
SYMATTR Value 100n
SYMBOL res 18768 5872 R0
SYMATTR InstName R31
SYMATTR Value 10k
SYMBOL res 19296 6176 R180
WINDOW 0 36 76 Left 2
WINDOW 3 36 40 Left 2
SYMATTR InstName R32
SYMATTR Value 1k
SYMBOL cap 19296 6384 R180
WINDOW 0 24 56 Left 2
WINDOW 3 24 8 Left 2
SYMATTR InstName C18
SYMATTR Value 10p
SYMBOL res 20864 6352 R90
WINDOW 0 0 56 VBottom 2
WINDOW 3 32 56 VTop 2
SYMATTR InstName R33
SYMATTR Value 100k
SYMBOL cap 20736 6560 R180
WINDOW 0 24 56 Left 2
WINDOW 3 24 8 Left 2
SYMATTR InstName C19
SYMATTR Value 100n
SYMBOL res 19632 6064 R0
SYMATTR InstName R37
SYMATTR Value 33k
SYMBOL diode 19584 4720 R0
SYMATTR InstName D15
SYMATTR Value 1N4148
SYMBOL diode 19584 4944 R0
SYMATTR InstName D16
SYMATTR Value 1N4148
SYMBOL cap 19488 4752 R0
SYMATTR InstName C29
SYMATTR Value 1µ
SYMBOL res 19488 5248 R0
SYMATTR InstName R38
SYMATTR Value 22k
SYMBOL voltage 18160 6272 R0
WINDOW 39 0 0 Left 0
SYMATTR InstName V1
SYMATTR Value PWL file=sig_in.csv
SYMBOL sw 19456 6976 R180
SYMATTR InstName S1
SYMATTR Value MYSW
SYMBOL voltage 19616 7008 R0
WINDOW 123 0 0 Left 0
WINDOW 39 0 0 Left 0
SYMATTR InstName V2
SYMATTR Value PULSE(0 1 10n 3n 3n 100n)
SYMBOL res 19648 6800 R90
WINDOW 0 0 56 VBottom 2
WINDOW 3 32 56 VTop 2
SYMATTR InstName R1
SYMATTR Value 10k
SYMBOL voltage 20080 6848 R0
SYMATTR InstName V3
SYMATTR Value 3
SYMBOL res 19952 6960 R180
WINDOW 0 36 76 Left 2
WINDOW 3 36 40 Left 2
SYMATTR InstName R2
SYMATTR Value 100
SYMBOL res 19952 6832 R270
WINDOW 0 32 56 VTop 2
WINDOW 3 0 56 VBottom 2
SYMATTR InstName R3
SYMATTR Value 330
SYMBOL cap 19808 6928 R180
WINDOW 0 24 56 Left 2
WINDOW 3 24 8 Left 2
SYMATTR InstName C1
SYMATTR Value 100n
SYMBOL cap 19728 6928 R180
WINDOW 0 24 56 Left 2
WINDOW 3 24 8 Left 2
SYMATTR InstName C2
SYMATTR Value 10µ
SYMBOL BFU660F 20960 6256 R0
SYMATTR InstName U1
SYMBOL BFU660F 18960 6064 R0
WINDOW 0 71 -87 Bottom 2
WINDOW 3 107 -81 Top 2
SYMATTR InstName U2
TEXT 18296 6880 Left 2 !.include standard.bjt\n.include standard_2.bjt
TEXT 21128 6488 Left 2 ;output impedance approx 300 R
TEXT 20136 7192 Left 2 !.model MYSW SW(Ron=1 Roff=1Meg Vt=.5 Vh=-.4)
TEXT 19152 7528 Left 6 ;MMBTH81 single
TEXT 18232 7320 Left 2 !.tran 0 {transtop} 0 {timestep}
TEXT 18232 7400 Left 2 !.include param.txt
TEXT 18232 7360 Left 2 !.include trancmd.txt
TEXT 18440 7448 Left 2 ;do not edit this by hand
RECTANGLE Normal 18736 7488 18192 7264 2
